11

C       -0.180226841      0.360945118     -1.120304970  1
C       -0.180226841      1.559292118     -0.407860970  2
C       -0.180226841      1.503191118      0.986935030  3
N       -0.180226841      0.360945118      1.685965030  4
C       -0.180226841     -0.781300882      0.986935030  5
C       -0.180226841     -0.837401882     -0.407860970  6
H       -0.180226841      0.360945118     -2.206546970  7
H       -0.180226841      2.517950118     -0.917077970  8
H       -0.180226841      2.421289118      1.572099030  9
H       -0.180226841     -1.699398882      1.572099030  10
H       -0.180226841     -1.796059882     -0.917077970  11